11
{"conf": 1, "E": 229.08, "rms": -1.0, "geom": "OH", "smiles": "[3H-]->[Ru+2:1]1(<-[4H-:2])(<-[5H-:3])(<-[6H-:4])<-[1NH2:5][2NH2:6]->1", "smiles3D": "[3H-]->[Ru+2:1]1(<-[4H-:2])(<-[5H-:3])(<-[6H-:4])<-[1N:5]([H:7])([H:8])[2N:6]->1([H:9])[H:10]", "smiles3Dx": "[3H-]->[Ru+2:1]1(<-[4H-:2])(<-[5H-:3])(<-[6H-:4])<-[1N:5]([H:7])([H:8])[2N:6]->1([H:9])[H:10]", "dummies": []}
H      0.1527     0.0856    -1.6811
Ru     0.0000     0.0000     0.0000
H      0.9989    -1.3628     0.0204
H     -0.1498    -0.0858     1.6814
H      1.1235     1.2514     0.1649
N     -1.9995    -0.6008    -0.2105
N     -1.9324     0.8071    -0.1327
H     -2.3433    -1.0257     0.5209
H     -2.2037    -0.9466    -1.0305
H     -2.0986     1.2588    -0.9086
H     -2.2382     1.1797     0.6427
