9
{"conf": 2, "E": 62.03, "rms": -1.0, "geom": "OH", "smiles": "[3H-]->[Ru+2:1]1(<-[4H-:2])(<-[5H-:3])(<-[6H-:4])<-[1O-:5][C:6](=[O:7])[2O-:8]->1", "smiles3D": "[3H-]->[Ru+2:1]1(<-[4H-:2])(<-[5H-:3])(<-[6H-:4])<-[1O-:5][C:6](=[O:7])[2O-:8]->1", "smiles3Dx": "[3H-]->[Ru+2:1]1(<-[4H-:2])(<-[5H-:3])(<-[6H-:4])<-[1O-:5][C:6](=[O:7])[2O-:8]->1", "dummies": []}
H      0.0027     0.6224    -1.5714
Ru     0.0000     0.0000     0.0000
H     -1.6127     0.4706     0.1830
H     -0.0041    -0.6230     1.5712
H     -0.3338    -1.5398    -0.6109
O      0.9577     1.7205     0.6839
C      2.2853     1.2550     0.5023
O      2.5955     0.1214     0.0538
O      2.0839    -0.0501    -0.0153
