11
{"conf": 0, "E": 228.87, "rms": -1.0, "geom": "OH", "smiles": "[3Cl-]->[Ru+2:1]1(<-[4Cl-:2])(<-[5Cl-:3])(<-[6Cl-:4])<-[1NH2:5][2NH2:6]->1", "smiles3D": "[3Cl-]->[Ru+2:1]1(<-[4Cl-:2])(<-[5Cl-:3])(<-[6Cl-:4])<-[1N:5]([H:7])([H:8])[2N:6]->1([H:9])[H:10]", "smiles3Dx": "[3Cl-]->[Ru+2:1]1(<-[4Cl-:2])(<-[5Cl-:3])(<-[6Cl-:4])<-[1N:5]([H:7])([H:8])[2N:6]->1([H:9])[H:10]", "dummies": []}
Cl    -0.1505    -0.3387    -2.4234
Ru     0.0000     0.0000     0.0000
Cl     1.0376    -2.2064     0.2371
Cl     0.1712     0.3334     2.4227
Cl     1.9556     1.4381    -0.3293
N     -2.0852    -0.1854     0.1641
N     -1.7443     1.1683    -0.0462
H     -2.3801    -0.3975     1.0016
H     -2.4824    -0.6112    -0.5389
H     -1.9485     1.5086    -0.8683
H     -1.8462     1.7222     0.6722
