11
{"conf": 0, "E": 228.87, "rms": -1.0, "geom": "OH", "smiles": "[3Cl-]->[Ru+2:1]1(<-[4Cl-:2])(<-[5Cl-:3])(<-[6Cl-:4])<-[1NH2:5][2NH2:6]->1", "smiles3D": "[3Cl-]->[Ru+2:1]1(<-[4Cl-:2])(<-[5Cl-:3])(<-[6Cl-:4])<-[1N:5]([H:7])([H:8])[2N:6]->1([H:9])[H:10]", "smiles3Dx": "[3Cl-]->[Ru+2:1]1(<-[4Cl-:2])(<-[5Cl-:3])(<-[6Cl-:4])<-[1N:5]([H:7])([H:8])[2N:6]->1([H:9])[H:10]", "dummies": []}
Cl    -0.0829     0.8227     2.3079
Ru     0.0000     0.0000     0.0000
Cl     1.5754     1.7863    -0.5729
Cl     0.1043    -0.8227    -2.3070
Cl     1.5136    -1.7941     0.7010
N     -1.9645     0.6699    -0.3185
N     -1.9875    -0.6599     0.1547
H     -2.2453     1.3083     0.2704
H     -2.1858     0.7853    -1.1966
H     -2.2813    -0.7741     1.0114
H     -2.2218    -1.2971    -0.4556
