9
{"conf": 2, "E": 61.64, "rms": -1.0, "geom": "OH", "smiles": "O=[C:1]1[1O-:2]->[Ru+2:3](<-[3Cl-:4])(<-[4Cl-:5])(<-[5Cl-:6])(<-[6Cl-:7])<-[2O-:8]1", "smiles3D": "O=[C:1]1[1O-:2]->[Ru+2:3](<-[3Cl-:4])(<-[4Cl-:5])(<-[5Cl-:6])(<-[6Cl-:7])<-[2O-:8]1", "smiles3Dx": "O=[C:1]1[1O-:2]->[Ru+2:3](<-[3Cl-:4])(<-[4Cl-:5])(<-[5Cl-:6])(<-[6Cl-:7])<-[2O-:8]1", "dummies": []}
O     -2.5778    -0.6557     0.0169
C     -2.0362    -1.5819    -0.6399
O     -2.0483    -0.3740     0.1037
Ru     0.0000     0.0000     0.0000
Cl     0.3400    -1.2679     2.0695
Cl     0.1130     2.0936     1.2670
Cl    -0.3333     1.2724    -2.0679
Cl     2.3987    -0.1414    -0.4771
O     -0.6611    -1.7311    -0.9553
